.MODEL MODN NMOS LEVEL=7 
* ----------------------------------------------------------------------

+MOBMOD =1.000e+00 CAPMOD =2.000e+00 
+NOIMOD =3.000e+00 
+K1     =5.0296e-01 
+K2     =3.3985e-02 K3     =-1.136e+00 K3B    =-4.399e-01 
+NCH    =2.611e+17 VTH0   =4.979e-01 
+VOFF   =-8.925e-02 DVT0   =5.000e+01 DVT1   =1.039e+00 
+DVT2   =-8.375e-03 KETA   =2.032e-02 
+PSCBE1 =3.518e+08 PSCBE2 =7.491e-05 
+DVT0W  =1.089e-01 DVT1W  =6.671e+04 DVT2W  =-1.352e-02 
+UA     =4.705e-12 UB     =2.137e-18 UC     =1.000e-20 
+U0     =4.758e+02 
+DSUB   =5.000e-01 ETA0   =1.415e-02 ETAB   =-1.221e-01 
+NFACTOR=4.136e-01 
+EM     =4.100e+07 PCLM   =6.948e-01 
+PDIBLC1=3.571e-01 PDIBLC2=2.065e-03 DROUT  =5.000e-01 
+A0     =2.541e+00 A1     =0.000e+00 A2     =1.000e+00 
+PVAG   =0.000e+00 VSAT   =1.338e+05 AGS    =2.408e-01 
+B0     =4.301e-09 B1     =0.000e+00 DELTA  =1.442e-02 
+PDIBLCB=3.222e-01 
+W0     =2.673e-07 DLC    =3.0000e-08 
+DWB    =0.000e+00 DWG    =0.000e+00 
+LL     =0.000e+00 LW     =0.000e+00 LWL    =0.000e+00 
+LLN    =1.000e+00 LWN    =1.000e+00 WL     =0.000e+00 
+WW     =-1.297e-14 WWL    =-9.411e-21 WLN    =1.000e+00 
+WWN    =1.000e+00 
+AT     =3.300e+04 UTE    =-1.800e+00 
+KT1    =-3.302e-01 KT2    =2.200e-02 KT1L   =0.000e+00 
+UA1    =0.000e+00 UB1    =0.000e+00 UC1    =0.000e+00 
+PRT    =0.000e+00 
+CGDO   =1.300e-10 CGSO   =1.200e-10 CGBO   =1.100e-10 
+CGDL   =1.310e-10 CGSL   =1.310e-10 CKAPPA =6.000e-01 
+CF     =0.000e+00 ELM    =5.000e+00 
+XPART  =1.000e+00 CLC    =1.000e-15 CLE    =6.000e-01 
+RDSW   =3.449e+02 
+CDSC   =0.000e+00 CDSCB  =1.500e-03 CDSCD  =1.000e-03 
+PRWB   =-2.416e-01 PRWG   =0.000e+00 CIT    =4.441e-04 
+TOX    =7.575e-09 NGATE  =0.000e+00 
+NLX    =1.888e-07 
+ALPHA0 =0.000e+00 BETA0  =3.000e+01 
+AF     =1.3600e+00 KF     =5.1e-27 EF     =1.000e+00 
+NOIA   =1.73e+19 NOIB   =7.000e+04 NOIC   =-5.64e-13 
+LINT   =-5.005e-08 WINT   =9.4030e-08 XJ     =3.000e-07 
+RSH    =7.000e+01 JS     =1.000e-05 
+CJ     =9.400e-04 CJSW   =2.500e-10 
+CBD    =0.000e+00 CBS    =0.000e+00 IS     =0.000e+00 
+MJ     =3.400e-01 N      =1.000e+00 MJSW   =2.300e-01 
+PB     =6.900e-01 TT     =0.000e+00 
+PBSW   =6.900e-01 
* ----------------------------------------------------------------------
* ----------------------------------------------------------------------
.MODEL MODNM NMOS LEVEL=7 
* ----------------------------------------------------------------------
*
+MOBMOD =1.000e+00 CAPMOD =2.000e+00 
+NOIMOD =3.000e+00 
+K1     =7.4922e-01 
+K2     =1.1026e-01 K3     =-3.776e+00 K3B    =-7.691e-02 
+NCH    =2.265e+17 VTH0   =7.525e-01 
+VOFF   =-8.295e-02 DVT0   =3.000e+01 DVT1   =1.528e+00 
+DVT2   =2.529e-02 KETA   =3.585e-02 
+PSCBE1 =4.309e+08 PSCBE2 =1.000e-10 
+DVT0W  =-5.000e+00 DVT1W  =2.578e+06 DVT2W  =5.105e-02 
+UA     =4.708e-10 UB     =1.470e-18 UC     =-4.342e-11 
+U0     =5.643e+02 
+DSUB   =5.000e-01 ETA0   =3.795e-02 ETAB   =-7.653e-04 
+NFACTOR=8.573e-01 
+EM     =4.100e+07 PCLM   =2.125e-01 
+PDIBLC1=1.000e-04 PDIBLC2=5.458e-04 DROUT  =5.000e-01 
+A0     =2.064e+00 A1     =0.000e+00 A2     =1.000e+00 
+PVAG   =0.000e+00 VSAT   =1.078e+05 AGS    =1.079e-01 
+B0     =-1.493e-07 B1     =0.000e+00 DELTA  =1.000e-02 
+PDIBLCB=5.186e-01 
+W0     =1.617e-07 DLC    =1.0000e-07 
+DWB    =0.000e+00 DWG    =0.000e+00 
+LL     =0.000e+00 LW     =0.000e+00 LWL    =0.000e+00 
+LLN    =1.000e+00 LWN    =1.000e+00 WL     =0.000e+00 
+WW     =-5.117e-14 WWL    =-5.704e-21 WLN    =1.000e+00 
+WWN    =1.000e+00 
+AT     =3.300e+04 UTE    =-1.760e+00 
+KT1    =-4.502e-01 KT2    =2.200e-02 KT1L   =0.000e+00 
+UA1    =0.000e+00 UB1    =0.000e+00 UC1    =0.000e+00 
+PRT    =0.000e+00 
+CGDO   =1.080e-10 CGSO   =1.080e-10 CGBO   =1.100e-10 
+CGDL   =2.270e-10 CGSL   =2.270e-10 CKAPPA =6.000e-01 
+CF     =0.000e+00 ELM    =5.000e+00 
+XPART  =1.000e+00 CLC    =1.000e-15 CLE    =6.000e-01 
+RDSW   =1.390e+03 
+CDSC   =0.000e+00 CDSCB  =-1.500e-03 CDSCD  =0.000e+00 
+PRWB   =-6.740e-02 PRWG   =0.000e+00 CIT    =0.000e+00 
+TOX    =1.516e-08 NGATE  =0.000e+00 
+NLX    =2.283e-07 
+ALPHA0 =0.000e+00 BETA0  =3.000e+01 
+AF     =1.270e+00 KF     =3.50e-27 EF     =1.000e+00 
+NOIA   =6.64e+19 NOIB   =1.090e+05 NOIC   =-1.4e-13 
+LINT   =1.2250e-07 WINT   =1.6230e-07 XJ     =3.000e-07 
+RSH    =7.900e+01 JS     =1.000e-05 
+CJ     =9.400e-04 CJSW   =2.500e-10 
+CBD    =0.000e+00 CBS    =0.000e+00 IS     =0.000e+00 
+MJ     =3.400e-01 N      =1.000e+00 MJSW   =2.300e-01 
+PB     =6.900e-01 TT     =0.000e+00 
+PBSW   =6.900e-01 
* ----------------------------------------------------------------------
.MODEL MODPM PMOS LEVEL=7 
* ----------------------------------------------------------------------
+MOBMOD =1.000e+00 CAPMOD =2.000e+00 
+NOIMOD =3.000e+00 
+K1     =5.4907e-01 
+K2     =4.6395e-02 K3     =8.317e+00 K3B    =-1.479e+00 
+NCH    =8.479e+16 VTH0   =-1.011e+00 
+VOFF   =-1.148e-01 DVT0   =5.399e-01 DVT1   =4.112e-01 
+DVT2   =-9.479e-02 KETA   =3.010e-02 
+PSCBE1 =5.000e+09 PSCBE2 =1.000e-10 
+DVT0W  =8.099e-01 DVT1W  =1.480e+05 DVT2W  =4.404e-02 
+UA     =1.800e-12 UB     =2.218e-18 UC     =-7.278e-11 
+U0     =1.373e+02 
+DSUB   =5.000e-01 ETA0   =9.736e-02 ETAB   =-2.948e-02 
+NFACTOR=7.046e-01 
+EM     =4.100e+07 PCLM   =4.395e+00 
+PDIBLC1=2.037e-02 PDIBLC2=1.000e-20 DROUT  =5.000e-01 
+A0     =1.386e+00 A1     =0.000e+00 A2     =1.000e+00 
+PVAG   =0.000e+00 VSAT   =1.436e+05 AGS    =1.364e-01 
+B0     =1.991e-08 B1     =0.000e+00 DELTA  =1.000e-02 
+PDIBLCB=1.000e+00 
+W0     =1.000e-10 DLC    =2.5000e-08 
+DWB    =0.000e+00 DWG    =0.000e+00 
+LL     =0.000e+00 LW     =0.000e+00 LWL    =0.000e+00 
+LLN    =1.000e+00 LWN    =1.000e+00 WL     =0.000e+00 
+WW     =-9.750e-16 WWL    =-1.787e-21 WLN    =1.000e+00 
+WWN    =1.040e+00 
+AT     =3.300e+04 UTE    =-1.300e+00 
+KT1    =-6.003e-01 KT2    =2.200e-02 KT1L   =0.000e+00 
+UA1    =0.000e+00 UB1    =0.000e+00 UC1    =0.000e+00 
+PRT    =0.000e+00 
+CGDO   =9.100e-11 CGSO   =9.100e-11 CGBO   =1.100e-10 
+CGDL   =0.600e-10 CGSL   =0.600e-10 CKAPPA =6.000e-01 
+CF     =0.000e+00 ELM    =5.000e+00 
+XPART  =1.000e+00 CLC    =1.000e-15 CLE    =6.000e-01 
+RDSW   =1.623e+03 
+CDSC   =1.214e-03 CDSCB  =2.945e-04 CDSCD  =0.000e+00 
+PRWB   =-4.521e-01 PRWG   =0.000e+00 CIT    =5.259e-05 
+TOX    =1.450e-08 NGATE  =0.000e+00 
+NLX    =2.231e-07 
+ALPHA0 =0.000e+00 BETA0  =3.000e+01 
+AF     =1.5e+00 KF     =9.4e-27 EF     =1.000e+00 
+NOIA   =1.09e+18 NOIB   =6.01e+03 NOIC   =1.19e-12 
+LINT   =-8.504e-08 WINT   =6.2030e-08 XJ     =3.000e-07 
+RSH    =1.300e+02 JS     =9.000e-05 
+CJ     =1.360e-03 CJSW   =3.200e-10 
+CBD    =0.000e+00 CBS    =0.000e+00 IS     =0.000e+00 
+MJ     =5.600e-01 N      =1.000e+00 MJSW   =4.300e-01 
+PB     =1.020e+00 TT     =0.000e+00 
+PBSW   =1.020e+00 
* ----------------------------------------------------------------------
.MODEL MODP PMOS LEVEL=7 
* ----------------------------------------------------------------------
*
+MOBMOD =1.000e+00 CAPMOD =2.000e+00 
+NOIMOD =3.000e+00 
+K1     =5.9959e-01 
+K2     =-6.038e-02 K3     =1.103e+01 K3B    =-7.580e-01 
+NCH    =9.240e+16 VTH0   =-6.915e-01 
+VOFF   =-1.170e-01 DVT0   =1.650e+00 DVT1   =3.868e-01 
+DVT2   =1.659e-02 KETA   =-1.440e-02 
+PSCBE1 =5.000e+09 PSCBE2 =1.000e-04 
+DVT0W  =1.879e-01 DVT1W  =7.335e+04 DVT2W  =-6.312e-03 
+UA     =5.394e-10 UB     =1.053e-18 UC     =1.000e-20 
+U0     =1.482e+02 
+DSUB   =5.000e-01 ETA0   =2.480e-01 ETAB   =-3.917e-03 
+NFACTOR=1.214e+00 
+EM     =4.100e+07 PCLM   =3.184e+00 
+PDIBLC1=1.000e-04 PDIBLC2=1.000e-20 DROUT  =5.000e-01 
+A0     =5.850e-01 A1     =0.000e+00 A2     =1.000e+00 
+PVAG   =0.000e+00 VSAT   =1.158e+05 AGS    =2.468e-01 
+B0     =8.832e-08 B1     =0.000e+00 DELTA  =1.000e-02 
+PDIBLCB=1.000e+00 
+W0     =1.000e-10 DLC    =2.4500e-08 
+DWB    =0.000e+00 DWG    =0.000e+00 
+LL     =0.000e+00 LW     =0.000e+00 LWL    =0.000e+00 
+LLN    =1.000e+00 LWN    =1.000e+00 WL     =0.000e+00 
+WW     =1.894e-16 WWL    =-1.981e-21 WLN    =1.000e+00 
+WWN    =1.040e+00 
+AT     =3.300e+04 UTE    =-1.300e+00 
+KT1    =-5.403e-01 KT2    =2.200e-02 KT1L   =0.000e+00 
+UA1    =0.000e+00 UB1    =0.000e+00 UC1    =0.000e+00 
+PRT    =0.000e+00 
+CGDO   =8.600e-11 CGSO   =8.600e-11 CGBO   =1.100e-10 
+CGDL   =1.080e-10 CGSL   =1.080e-10 CKAPPA =6.000e-01 
+CF     =0.000e+00 ELM    =5.000e+00 
+XPART  =1.000e+00 CLC    =1.000e-15 CLE    =6.000e-01 
+RDSW   =1.033e+03 
+CDSC   =2.589e-03 CDSCB  =2.943e-04 CDSCD  =4.370e-04 
+PRWB   =-9.731e-02 PRWG   =1.477e-01 CIT    =0.000e+00 
+TOX    =7.754e-09 NGATE  =0.000e+00 
+NLX    =1.770e-07 
+ALPHA0 =0.000e+00 BETA0  =3.000e+01 
+AF     =1.48e+00 KF     =8.5e-27 EF     =1.000e+00 
+NOIA   =1.52e+18 NOIB   =7.75e+03 NOIC   =5.0e-13 
+LINT   =-7.130e-08 WINT   =3.4490e-08 XJ     =3.000e-07 
+RSH    =1.290e+02 JS     =9.000e-05 
+CJ     =1.360e-03 CJSW   =3.200e-10 
+CBD    =0.000e+00 CBS    =0.000e+00 IS     =0.000e+00 
+MJ     =5.600e-01 N      =1.000e+00 MJSW   =4.300e-01 
+PB     =1.020e+00 TT     =0.000e+00 
+PBSW   =1.020e+00 
*
