* /home/saurel/telemetre/bench-osc_tb.cmd input netlist
* Creation Date : Wed Oct 16 16:01:44% CEST 2013 
*


.tran 0.1ns 10ns
.op
* User minimum step definition
.option hmin=1e-12
* User integration method selection
.option trap
* User ELDO accuracy specification
.option eps=1u
* User ELDO accuracy specification
.option tuning=standard
.end

