* /home/saurel/telemetre/bench-oa_tb.cmd input netlist
* Creation Date : Fri Oct 25 09:23:29% CEST 2013 
*


.ac lin 10 1 1e6
.op
* User minimum step definition
.option hmin=1e-12
* User integration method selection
.option trap
* User ELDO accuracy specification
.option eps=5e-3
* User ELDO accuracy specification
.option tuning=standard
.end
