oscillator testbench
.tran 1ms 100ms
.option eps=1.0e-5
.OPTION METHOD=GEAR
